data_data2/WTe2_BULK_OPTGEOM_TZ.out

_cell_length_a                         3.411181
_cell_length_b                         6.145834
_cell_length_c                         13.051986
_cell_angle_alpha                      90.000000
_cell_angle_beta                       90.000000
_cell_angle_gamma                      90.000000
_symmetry_space_group_name_H-M         'P 1'
_symmetry_Int_Tables_number            1

loop_
_symmetry_equiv_pos_as_xyz
   'x, y, z'

loop_
   _atom_site_label
   _atom_site_type_symbol
   _atom_site_fract_x
   _atom_site_fract_y
   _atom_site_fract_z
Te001  Te  -0.500000  -0.220650  -0.101407
Te002  Te   0.000000   0.220650   0.398593
Te003  Te  -0.500000  -0.286621   0.351094
Te004  Te   0.000000   0.286621  -0.148906
Te005  Te   0.000000  -0.131034  -0.335867
Te006  Te  -0.500000   0.131034   0.164133
Te007  Te   0.000000  -0.367798   0.116252
Te008  Te  -0.500000   0.367798  -0.383748
 W009   W  -0.500000  -0.025565  -0.484564
 W010   W   0.000000   0.025565   0.015436
 W011   W  -0.500000   0.386861  -0.000218
 W012   W   0.000000  -0.386861   0.499782
